ref/eacharea_BFSFR/flow/psatconverter/case118_psat.m
function data = case118_psat

% PSAT data file for IEEE 118 bus system

Settings.mva = 100.0;
Settings.freq = 60;

Bus.con = [
1.0 0.955 10.67 0.51 0.27 0.0 0.0 2.0 0.94 1.06
2.0 0.971 11.22 0.2 0.09 0.0 0.0 1.0 0.94 1.06
3.0 0.968 11.56 0.39 0.1 0.0 0.0 1.0 0.94 1.06
4.0 0.998 15.28 0.39 0.12 0.0 0.0 2.0 0.94 1.06
5.0 1.002 15.73 0.0 0.0 0.0 -0.4 1.0 0.94 1.06
6.0 0.99 13.0 0.52 0.22 0.0 0.0 2.0 0.94 1.06
7.0 0.989 12.56 0.19 0.02 0.0 0.0 1.0 0.94 1.06
8.0 1.015 20.77 0.28 0.0 0.0 0.0 2.0 0.94 1.06
9.0 1.043 28.02 0.0 0.0 0.0 0.0 1.0 0.94 1.06
10.0 1.05 35.61 0.0 0.0 0.0 0.0 2.0 0.94 1.06
11.0 0.985 12.72 0.7 0.23 0.0 0.0 1.0 0.94 1.06
12.0 0.99 12.2 0.47 0.1 0.0 0.0 2.0 0.94 1.06
13.0 0.968 11.35 0.34 0.16 0.0 0.0 1.0 0.94 1.06
14.0 0.984 11.5 0.14 0.01 0.0 0.0 1.0 0.94 1.06
15.0 0.97 11.23 0.9 0.3 0.0 0.0 2.0 0.94 1.06
16.0 0.984 11.91 0.25 0.1 0.0 0.0 1.0 0.94 1.06
17.0 0.995 13.74 0.11 0.03 0.0 0.0 1.0 0.94 1.06
18.0 0.973 11.53 0.6 0.34 0.0 0.0 2.0 0.94 1.06
19.0 0.963 11.05 0.45 0.25 0.0 0.0 2.0 0.94 1.06
20.0 0.958 11.93 0.18 0.03 0.0 0.0 1.0 0.94 1.06
21.0 0.959 13.52 0.14 0.08 0.0 0.0 1.0 0.94 1.06
22.0 0.97 16.08 0.1 0.05 0.0 0.0 1.0 0.94 1.06
23.0 1.0 21.0 0.07 0.03 0.0 0.0 1.0 0.94 1.06
24.0 0.992 20.89 0.13 0.0 0.0 0.0 2.0 0.94 1.06
25.0 1.05 27.93 0.0 0.0 0.0 0.0 2.0 0.94 1.06
26.0 1.015 29.71 0.0 0.0 0.0 0.0 2.0 0.94 1.06
27.0 0.968 15.35 0.71 0.13 0.0 0.0 2.0 0.94 1.06
28.0 0.962 13.62 0.17 0.07 0.0 0.0 1.0 0.94 1.06
29.0 0.963 12.63 0.24 0.04 0.0 0.0 1.0 0.94 1.06
30.0 0.968 18.79 0.0 0.0 0.0 0.0 1.0 0.94 1.06
31.0 0.967 12.75 0.43 0.27 0.0 0.0 2.0 0.94 1.06
32.0 0.964 14.8 0.59 0.23 0.0 0.0 2.0 0.94 1.06
33.0 0.972 10.63 0.23 0.09 0.0 0.0 1.0 0.94 1.06
34.0 0.986 11.3 0.59 0.26 0.0 0.14 2.0 0.94 1.06
35.0 0.981 10.87 0.33 0.09 0.0 0.0 1.0 0.94 1.06
36.0 0.98 10.87 0.31 0.17 0.0 0.0 2.0 0.94 1.06
37.0 0.992 11.77 0.0 0.0 0.0 -0.25 1.0 0.94 1.06
38.0 0.962 16.91 0.0 0.0 0.0 0.0 1.0 0.94 1.06
39.0 0.97 8.41 0.27 0.11 0.0 0.0 1.0 0.94 1.06
40.0 0.97 7.35 0.66 0.23 0.0 0.0 2.0 0.94 1.06
41.0 0.967 6.92 0.37 0.1 0.0 0.0 1.0 0.94 1.06
42.0 0.985 8.53 0.96 0.23 0.0 0.0 2.0 0.94 1.06
43.0 0.978 11.28 0.18 0.07 0.0 0.0 1.0 0.94 1.06
44.0 0.985 13.82 0.16 0.08 0.0 0.1 1.0 0.94 1.06
45.0 0.987 15.67 0.53 0.22 0.0 0.1 1.0 0.94 1.06
46.0 1.005 18.49 0.28 0.1 0.0 0.1 2.0 0.94 1.06
47.0 1.017 20.73 0.34 0.0 0.0 0.0 1.0 0.94 1.06
48.0 1.021 19.93 0.2 0.11 0.0 0.15 1.0 0.94 1.06
49.0 1.025 20.94 0.87 0.3 0.0 0.0 2.0 0.94 1.06
50.0 1.001 18.9 0.17 0.04 0.0 0.0 1.0 0.94 1.06
51.0 0.967 16.28 0.17 0.08 0.0 0.0 1.0 0.94 1.06
52.0 0.957 15.32 0.18 0.05 0.0 0.0 1.0 0.94 1.06
53.0 0.946 14.35 0.23 0.11 0.0 0.0 1.0 0.94 1.06
54.0 0.955 15.26 1.13 0.32 0.0 0.0 2.0 0.94 1.06
55.0 0.952 14.97 0.63 0.22 0.0 0.0 2.0 0.94 1.06
56.0 0.954 15.16 0.84 0.18 0.0 0.0 2.0 0.94 1.06
57.0 0.971 16.36 0.12 0.03 0.0 0.0 1.0 0.94 1.06
58.0 0.959 15.51 0.12 0.03 0.0 0.0 1.0 0.94 1.06
59.0 0.985 19.37 2.77 1.13 0.0 0.0 2.0 0.94 1.06
60.0 0.993 23.15 0.78 0.03 0.0 0.0 1.0 0.94 1.06
61.0 0.995 24.04 0.0 0.0 0.0 0.0 2.0 0.94 1.06
62.0 0.998 23.43 0.77 0.14 0.0 0.0 2.0 0.94 1.06
63.0 0.969 22.75 0.0 0.0 0.0 0.0 1.0 0.94 1.06
64.0 0.984 24.52 0.0 0.0 0.0 0.0 1.0 0.94 1.06
65.0 1.005 27.65 0.0 0.0 0.0 0.0 2.0 0.94 1.06
66.0 1.05 27.48 0.39 0.18 0.0 0.0 2.0 0.94 1.06
67.0 1.02 24.84 0.28 0.07 0.0 0.0 1.0 0.94 1.06
68.0 1.003 27.55 0.0 0.0 0.0 0.0 1.0 0.94 1.06
69.0 1.035 30.0 0.0 0.0 0.0 0.0 1.0 0.94 1.06
70.0 0.984 22.58 0.66 0.2 0.0 0.0 2.0 0.94 1.06
71.0 0.987 22.15 0.0 0.0 0.0 0.0 1.0 0.94 1.06
72.0 0.98 20.98 0.12 0.0 0.0 0.0 2.0 0.94 1.06
73.0 0.991 21.94 0.06 0.0 0.0 0.0 2.0 0.94 1.06
74.0 0.958 21.64 0.68 0.27 0.0 0.12 2.0 0.94 1.06
75.0 0.967 22.91 0.47 0.11 0.0 0.0 1.0 0.94 1.06
76.0 0.943 21.77 0.68 0.36 0.0 0.0 2.0 0.94 1.06
77.0 1.006 26.72 0.61 0.28 0.0 0.0 2.0 0.94 1.06
78.0 1.003 26.42 0.71 0.26 0.0 0.0 1.0 0.94 1.06
79.0 1.009 26.72 0.39 0.32 0.0 0.2 1.0 0.94 1.06
80.0 1.04 28.96 1.3 0.26 0.0 0.0 2.0 0.94 1.06
81.0 0.997 28.1 0.0 0.0 0.0 0.0 1.0 0.94 1.06
82.0 0.989 27.24 0.54 0.27 0.0 0.2 1.0 0.94 1.06
83.0 0.985 28.42 0.2 0.1 0.0 0.1 1.0 0.94 1.06
84.0 0.98 30.95 0.11 0.07 0.0 0.0 1.0 0.94 1.06
85.0 0.985 32.51 0.24 0.15 0.0 0.0 2.0 0.94 1.06
86.0 0.987 31.14 0.21 0.1 0.0 0.0 1.0 0.94 1.06
87.0 1.015 31.4 0.0 0.0 0.0 0.0 2.0 0.94 1.06
88.0 0.987 35.64 0.48 0.1 0.0 0.0 1.0 0.94 1.06
89.0 1.005 39.69 0.0 0.0 0.0 0.0 2.0 0.94 1.06
90.0 0.985 33.29 1.63 0.42 0.0 0.0 2.0 0.94 1.06
91.0 0.98 33.31 0.1 0.0 0.0 0.0 2.0 0.94 1.06
92.0 0.993 33.8 0.65 0.1 0.0 0.0 2.0 0.94 1.06
93.0 0.987 30.79 0.12 0.07 0.0 0.0 1.0 0.94 1.06
94.0 0.991 28.64 0.3 0.16 0.0 0.0 1.0 0.94 1.06
95.0 0.981 27.67 0.42 0.31 0.0 0.0 1.0 0.94 1.06
96.0 0.993 27.51 0.38 0.15 0.0 0.0 1.0 0.94 1.06
97.0 1.011 27.88 0.15 0.09 0.0 0.0 1.0 0.94 1.06
98.0 1.024 27.4 0.34 0.08 0.0 0.0 1.0 0.94 1.06
99.0 1.01 27.04 0.42 0.0 0.0 0.0 2.0 0.94 1.06
100.0 1.017 28.03 0.37 0.18 0.0 0.0 2.0 0.94 1.06
101.0 0.993 29.61 0.22 0.15 0.0 0.0 1.0 0.94 1.06
102.0 0.991 32.3 0.05 0.03 0.0 0.0 1.0 0.94 1.06
103.0 1.001 24.44 0.23 0.16 0.0 0.0 2.0 0.94 1.06
104.0 0.971 21.69 0.38 0.25 0.0 0.0 2.0 0.94 1.06
105.0 0.965 20.57 0.31 0.26 0.0 0.2 2.0 0.94 1.06
106.0 0.962 20.32 0.43 0.16 0.0 0.0 1.0 0.94 1.06
107.0 0.952 17.53 0.5 0.12 0.0 0.06 2.0 0.94 1.06
108.0 0.967 19.38 0.02 0.01 0.0 0.0 1.0 0.94 1.06
109.0 0.967 18.93 0.08 0.03 0.0 0.0 1.0 0.94 1.06
110.0 0.973 18.09 0.39 0.3 0.0 0.06 2.0 0.94 1.06
111.0 0.98 19.74 0.0 0.0 0.0 0.0 2.0 0.94 1.06
112.0 0.975 14.99 0.68 0.13 0.0 0.0 2.0 0.94 1.06
113.0 0.993 13.74 0.06 0.0 0.0 0.0 2.0 0.94 1.06
114.0 0.96 14.46 0.08 0.03 0.0 0.0 1.0 0.94 1.06
115.0 0.96 14.46 0.22 0.07 0.0 0.0 1.0 0.94 1.06
116.0 1.005 27.12 1.84 0.0 0.0 0.0 2.0 0.94 1.06
117.0 0.974 10.67 0.2 0.08 0.0 0.0 1.0 0.94 1.06
118.0 0.949 21.92 0.33 0.15 0.0 0.0 1.0 0.94 1.06
];

SW.con = [
69.0 1.035 30.0 3.0 -3.0 8.052 0.0
];

PV.con = [
1.0 0.0 0.955 0.15 -0.05 1.0 0.0
4.0 0.0 0.998 3.0 -3.0 1.0 0.0
6.0 0.0 0.99 0.5 -0.13 1.0 0.0
8.0 0.0 1.015 3.0 -3.0 1.0 0.0
10.0 4.5 1.05 2.0 -1.47 5.5 0.0
12.0 0.85 0.99 1.2 -0.35 1.85 0.0
15.0 0.0 0.97 0.3 -0.1 1.0 0.0
18.0 0.0 0.973 0.5 -0.16 1.0 0.0
19.0 0.0 0.962 0.24 -0.08 1.0 0.0
24.0 0.0 0.992 3.0 -3.0 1.0 0.0
25.0 2.2 1.05 1.4 -0.47 3.2 0.0
26.0 3.14 1.015 10.0 -10.0 4.14 0.0
27.0 0.0 0.968 3.0 -3.0 1.0 0.0
31.0 0.07 0.967 3.0 -3.0 1.07 0.0
32.0 0.0 0.963 0.42 -0.14 1.0 0.0
34.0 0.0 0.984 0.24 -0.08 1.0 0.0
36.0 0.0 0.98 0.24 -0.08 1.0 0.0
40.0 0.0 0.97 3.0 -3.0 1.0 0.0
42.0 0.0 0.985 3.0 -3.0 1.0 0.0
46.0 0.19 1.005 1.0 -1.0 1.19 0.0
49.0 2.04 1.025 2.1 -0.85 3.04 0.0
54.0 0.48 0.955 3.0 -3.0 1.48 0.0
55.0 0.0 0.952 0.23 -0.08 1.0 0.0
56.0 0.0 0.954 0.15 -0.08 1.0 0.0
59.0 1.55 0.985 1.8 -0.6 2.55 0.0
61.0 1.6 0.995 3.0 -1.0 2.6 0.0
62.0 0.0 0.998 0.2 -0.2 1.0 0.0
65.0 3.91 1.005 2.0 -0.67 4.91 0.0
66.0 3.92 1.05 2.0 -0.67 4.92 0.0
70.0 0.0 0.984 0.32 -0.1 1.0 0.0
72.0 0.0 0.98 1.0 -1.0 1.0 0.0
73.0 0.0 0.991 1.0 -1.0 1.0 0.0
74.0 0.0 0.958 0.09 -0.06 1.0 0.0
76.0 0.0 0.943 0.23 -0.08 1.0 0.0
77.0 0.0 1.006 0.7 -0.2 1.0 0.0
80.0 4.77 1.04 2.8 -1.65 5.77 0.0
85.0 0.0 0.985 0.23 -0.08 1.0 0.0
87.0 0.04 1.015 10.0 -1.0 1.04 0.0
89.0 6.07 1.005 3.0 -2.1 7.07 0.0
90.0 0.0 0.985 3.0 -3.0 1.0 0.0
91.0 0.0 0.98 1.0 -1.0 1.0 0.0
92.0 0.0 0.99 0.09 -0.03 1.0 0.0
99.0 0.0 1.01 1.0 -1.0 1.0 0.0
100.0 2.52 1.017 1.55 -0.5 3.52 0.0
103.0 0.4 1.01 0.4 -0.15 1.4 0.0
104.0 0.0 0.971 0.23 -0.08 1.0 0.0
105.0 0.0 0.965 0.23 -0.08 1.0 0.0
107.0 0.0 0.952 2.0 -2.0 1.0 0.0
110.0 0.0 0.973 0.23 -0.08 1.0 0.0
111.0 0.36 0.98 10.0 -1.0 1.36 0.0
112.0 0.0 0.975 10.0 -1.0 1.0 0.0
113.0 0.0 0.993 2.0 -1.0 1.0 0.0
116.0 0.0 1.005 10.0 -10.0 1.0 0.0
];

Line.con = [
1.0 2.0 0.0303 0.0999 0.0254
1.0 3.0 0.0129 0.0424 0.01082
4.0 5.0 0.00176 0.00798 0.0021
3.0 5.0 0.0241 0.108 0.0284
5.0 6.0 0.0119 0.054 0.01426
6.0 7.0 0.00459 0.0208 0.0055
8.0 9.0 0.00244 0.0305 1.162
9.0 10.0 0.00258 0.0322 1.23
4.0 11.0 0.0209 0.0688 0.01748
5.0 11.0 0.0203 0.0682 0.01738
11.0 12.0 0.00595 0.0196 0.00502
2.0 12.0 0.0187 0.0616 0.01572
3.0 12.0 0.0484 0.16 0.0406
7.0 12.0 0.00862 0.034 0.00874
11.0 13.0 0.02225 0.0731 0.01876
12.0 14.0 0.0215 0.0707 0.01816
13.0 15.0 0.0744 0.2444 0.06268
14.0 15.0 0.0595 0.195 0.0502
12.0 16.0 0.0212 0.0834 0.0214
15.0 17.0 0.0132 0.0437 0.0444
16.0 17.0 0.0454 0.1801 0.0466
17.0 18.0 0.0123 0.0505 0.01298
18.0 19.0 0.01119 0.0493 0.01142
19.0 20.0 0.0252 0.117 0.0298
15.0 19.0 0.012 0.0394 0.0101
20.0 21.0 0.0183 0.0849 0.0216
21.0 22.0 0.0209 0.097 0.0246
22.0 23.0 0.0342 0.159 0.0404
23.0 24.0 0.0135 0.0492 0.0498
23.0 25.0 0.0156 0.08 0.0864
25.0 27.0 0.0318 0.163 0.1764
27.0 28.0 0.01913 0.0855 0.0216
28.0 29.0 0.0237 0.0943 0.0238
8.0 30.0 0.00431 0.0504 0.514
26.0 30.0 0.00799 0.086 0.908
17.0 31.0 0.0474 0.1563 0.0399
29.0 31.0 0.0108 0.0331 0.0083
23.0 32.0 0.0317 0.1153 0.1173
31.0 32.0 0.0298 0.0985 0.0251
27.0 32.0 0.0229 0.0755 0.01926
15.0 33.0 0.038 0.1244 0.03194
19.0 34.0 0.0752 0.247 0.0632
35.0 36.0 0.00224 0.0102 0.00268
35.0 37.0 0.011 0.0497 0.01318
33.0 37.0 0.0415 0.142 0.0366
34.0 36.0 0.00871 0.0268 0.00568
34.0 37.0 0.00256 0.0094 0.00984
37.0 39.0 0.0321 0.106 0.027
37.0 40.0 0.0593 0.168 0.042
30.0 38.0 0.00464 0.054 0.422
39.0 40.0 0.0184 0.0605 0.01552
40.0 41.0 0.0145 0.0487 0.01222
40.0 42.0 0.0555 0.183 0.0466
41.0 42.0 0.041 0.135 0.0344
43.0 44.0 0.0608 0.2454 0.06068
34.0 43.0 0.0413 0.1681 0.04226
44.0 45.0 0.0224 0.0901 0.0224
45.0 46.0 0.04 0.1356 0.0332
46.0 47.0 0.038 0.127 0.0316
46.0 48.0 0.0601 0.189 0.0472
47.0 49.0 0.0191 0.0625 0.01604
42.0 49.0 0.0715 0.323 0.086
42.0 49.0 0.0715 0.323 0.086
45.0 49.0 0.0684 0.186 0.0444
48.0 49.0 0.0179 0.0505 0.01258
49.0 50.0 0.0267 0.0752 0.01874
49.0 51.0 0.0486 0.137 0.0342
51.0 52.0 0.0203 0.0588 0.01396
52.0 53.0 0.0405 0.1635 0.04058
53.0 54.0 0.0263 0.122 0.031
49.0 54.0 0.073 0.289 0.0738
49.0 54.0 0.0869 0.291 0.073
54.0 55.0 0.0169 0.0707 0.0202
54.0 56.0 0.00275 0.00955 0.00732
55.0 56.0 0.00488 0.0151 0.00374
56.0 57.0 0.0343 0.0966 0.0242
50.0 57.0 0.0474 0.134 0.0332
56.0 58.0 0.0343 0.0966 0.0242
51.0 58.0 0.0255 0.0719 0.01788
54.0 59.0 0.0503 0.2293 0.0598
56.0 59.0 0.0825 0.251 0.0569
56.0 59.0 0.0803 0.239 0.0536
55.0 59.0 0.04739 0.2158 0.05646
59.0 60.0 0.0317 0.145 0.0376
59.0 61.0 0.0328 0.15 0.0388
60.0 61.0 0.00264 0.0135 0.01456
60.0 62.0 0.0123 0.0561 0.01468
61.0 62.0 0.00824 0.0376 0.0098
63.0 64.0 0.00172 0.02 0.216
38.0 65.0 0.00901 0.0986 1.046
64.0 65.0 0.00269 0.0302 0.38
49.0 66.0 0.018 0.0919 0.0248
49.0 66.0 0.018 0.0919 0.0248
62.0 66.0 0.0482 0.218 0.0578
62.0 67.0 0.0258 0.117 0.031
66.0 67.0 0.0224 0.1015 0.02682
65.0 68.0 0.00138 0.016 0.638
47.0 69.0 0.0844 0.2778 0.07092
49.0 69.0 0.0985 0.324 0.0828
69.0 70.0 0.03 0.127 0.122
24.0 70.0 0.00221 0.4115 0.10198
70.0 71.0 0.00882 0.0355 0.00878
24.0 72.0 0.0488 0.196 0.0488
71.0 72.0 0.0446 0.18 0.04444
71.0 73.0 0.00866 0.0454 0.01178
70.0 74.0 0.0401 0.1323 0.03368
70.0 75.0 0.0428 0.141 0.036
69.0 75.0 0.0405 0.122 0.124
74.0 75.0 0.0123 0.0406 0.01034
76.0 77.0 0.0444 0.148 0.0368
69.0 77.0 0.0309 0.101 0.1038
75.0 77.0 0.0601 0.1999 0.04978
77.0 78.0 0.00376 0.0124 0.01264
78.0 79.0 0.00546 0.0244 0.00648
77.0 80.0 0.017 0.0485 0.0472
77.0 80.0 0.0294 0.105 0.0228
79.0 80.0 0.0156 0.0704 0.0187
68.0 81.0 0.00175 0.0202 0.808
77.0 82.0 0.0298 0.0853 0.08174
82.0 83.0 0.0112 0.03665 0.03796
83.0 84.0 0.0625 0.132 0.0258
83.0 85.0 0.043 0.148 0.0348
84.0 85.0 0.0302 0.0641 0.01234
85.0 86.0 0.035 0.123 0.0276
86.0 87.0 0.02828 0.2074 0.0445
85.0 88.0 0.02 0.102 0.0276
85.0 89.0 0.0239 0.173 0.047
88.0 89.0 0.0139 0.0712 0.01934
89.0 90.0 0.0518 0.188 0.0528
89.0 90.0 0.0238 0.0997 0.106
90.0 91.0 0.0254 0.0836 0.0214
89.0 92.0 0.0099 0.0505 0.0548
89.0 92.0 0.0393 0.1581 0.0414
91.0 92.0 0.0387 0.1272 0.03268
92.0 93.0 0.0258 0.0848 0.0218
92.0 94.0 0.0481 0.158 0.0406
93.0 94.0 0.0223 0.0732 0.01876
94.0 95.0 0.0132 0.0434 0.0111
80.0 96.0 0.0356 0.182 0.0494
82.0 96.0 0.0162 0.053 0.0544
94.0 96.0 0.0269 0.0869 0.023
80.0 97.0 0.0183 0.0934 0.0254
80.0 98.0 0.0238 0.108 0.0286
80.0 99.0 0.0454 0.206 0.0546
92.0 100.0 0.0648 0.295 0.0472
94.0 100.0 0.0178 0.058 0.0604
95.0 96.0 0.0171 0.0547 0.01474
96.0 97.0 0.0173 0.0885 0.024
98.0 100.0 0.0397 0.179 0.0476
99.0 100.0 0.018 0.0813 0.0216
100.0 101.0 0.0277 0.1262 0.0328
92.0 102.0 0.0123 0.0559 0.01464
101.0 102.0 0.0246 0.112 0.0294
100.0 103.0 0.016 0.0525 0.0536
100.0 104.0 0.0451 0.204 0.0541
103.0 104.0 0.0466 0.1584 0.0407
103.0 105.0 0.0535 0.1625 0.0408
100.0 106.0 0.0605 0.229 0.062
104.0 105.0 0.00994 0.0378 0.00986
105.0 106.0 0.014 0.0547 0.01434
105.0 107.0 0.053 0.183 0.0472
105.0 108.0 0.0261 0.0703 0.01844
106.0 107.0 0.053 0.183 0.0472
108.0 109.0 0.0105 0.0288 0.0076
103.0 110.0 0.03906 0.1813 0.0461
109.0 110.0 0.0278 0.0762 0.0202
110.0 111.0 0.022 0.0755 0.02
110.0 112.0 0.0247 0.064 0.062
17.0 113.0 0.00913 0.0301 0.00768
32.0 113.0 0.0615 0.203 0.0518
32.0 114.0 0.0135 0.0612 0.01628
27.0 115.0 0.0164 0.0741 0.01972
114.0 115.0 0.0023 0.0104 0.00276
68.0 116.0 0.00034 0.00405 0.164
12.0 117.0 0.0329 0.14 0.0358
75.0 118.0 0.0145 0.0481 0.01198
76.0 118.0 0.0164 0.0544 0.01356
];

Trsf.con = [
8.0 5.0 0.0 0.0267 0.985 0.0
26.0 25.0 0.0 0.0382 0.96 0.0
30.0 17.0 0.0 0.0388 0.96 0.0
38.0 37.0 0.0 0.0375 0.935 0.0
63.0 59.0 0.0 0.0386 0.96 0.0
64.0 61.0 0.0 0.0268 0.985 0.0
65.0 66.0 0.0 0.037 0.935 0.0
68.0 69.0 0.0 0.037 0.935 0.0
81.0 80.0 0.0 0.037 0.935 0.0
];

data = Bus;
data.SW = SW;
data.PV = PV;
data.Line = Line;
if exist('Trsf', 'var'), data.Trsf = Trsf; end

end
